*SPEF "ieee 1481-1999"
*DESIGN "user_analog_project_wrapper"
*DATE "11:11:11 Fri 11 11, 1111"
*VENDOR "OpenRCX"
*PROGRAM "Parallel Extraction"
*VERSION "1.0"
*DESIGN_FLOW "NAME_SCOPE LOCAL" "PIN_CAP NONE"
*DIVIDER /
*DELIMITER :
*BUS_DELIMITER []
*T_UNIT 1 NS
*C_UNIT 1 PF
*R_UNIT 1 OHM
*L_UNIT 1 HENRY

*NAME_MAP
*1 gpio_analog[0]
*2 gpio_analog[10]
*3 gpio_analog[11]
*4 gpio_analog[12]
*5 gpio_analog[13]
*6 gpio_analog[14]
*7 gpio_analog[15]
*8 gpio_analog[16]
*9 gpio_analog[17]
*10 gpio_analog[1]
*11 gpio_analog[2]
*12 gpio_analog[3]
*13 gpio_analog[4]
*14 gpio_analog[5]
*15 gpio_analog[6]
*16 gpio_analog[7]
*17 gpio_analog[8]
*18 gpio_analog[9]
*19 gpio_noesd[0]
*20 gpio_noesd[10]
*21 gpio_noesd[11]
*22 gpio_noesd[12]
*23 gpio_noesd[13]
*24 gpio_noesd[14]
*25 gpio_noesd[15]
*26 gpio_noesd[16]
*27 gpio_noesd[17]
*28 gpio_noesd[1]
*29 gpio_noesd[2]
*30 gpio_noesd[3]
*31 gpio_noesd[4]
*32 gpio_noesd[5]
*33 gpio_noesd[6]
*34 gpio_noesd[7]
*35 gpio_noesd[8]
*36 gpio_noesd[9]
*37 io_analog[0]
*38 io_analog[10]
*39 io_analog[1]
*40 io_analog[2]
*41 io_analog[3]
*42 io_analog[4]
*43 io_analog[5]
*44 io_analog[6]
*45 io_analog[7]
*46 io_analog[8]
*47 io_analog[9]
*48 io_clamp_high[0]
*49 io_clamp_high[1]
*50 io_clamp_high[2]
*51 io_clamp_low[0]
*52 io_clamp_low[1]
*53 io_clamp_low[2]
*54 io_in[0]
*55 io_in[10]
*56 io_in[11]
*57 io_in[12]
*58 io_in[13]
*59 io_in[14]
*60 io_in[15]
*61 io_in[16]
*62 io_in[17]
*63 io_in[18]
*64 io_in[19]
*65 io_in[1]
*66 io_in[20]
*67 io_in[21]
*68 io_in[22]
*69 io_in[23]
*70 io_in[24]
*71 io_in[25]
*72 io_in[26]
*73 io_in[2]
*74 io_in[3]
*75 io_in[4]
*76 io_in[5]
*77 io_in[6]
*78 io_in[7]
*79 io_in[8]
*80 io_in[9]
*81 io_in_3v3[0]
*82 io_in_3v3[10]
*83 io_in_3v3[11]
*84 io_in_3v3[12]
*85 io_in_3v3[13]
*86 io_in_3v3[14]
*87 io_in_3v3[15]
*88 io_in_3v3[16]
*89 io_in_3v3[17]
*90 io_in_3v3[18]
*91 io_in_3v3[19]
*92 io_in_3v3[1]
*93 io_in_3v3[20]
*94 io_in_3v3[21]
*95 io_in_3v3[22]
*96 io_in_3v3[23]
*97 io_in_3v3[24]
*98 io_in_3v3[25]
*99 io_in_3v3[26]
*100 io_in_3v3[2]
*101 io_in_3v3[3]
*102 io_in_3v3[4]
*103 io_in_3v3[5]
*104 io_in_3v3[6]
*105 io_in_3v3[7]
*106 io_in_3v3[8]
*107 io_in_3v3[9]
*108 io_oeb[0]
*109 io_oeb[10]
*110 io_oeb[11]
*111 io_oeb[12]
*112 io_oeb[13]
*113 io_oeb[14]
*114 io_oeb[15]
*115 io_oeb[16]
*116 io_oeb[17]
*117 io_oeb[18]
*118 io_oeb[19]
*119 io_oeb[1]
*120 io_oeb[20]
*121 io_oeb[21]
*122 io_oeb[22]
*123 io_oeb[23]
*124 io_oeb[24]
*125 io_oeb[25]
*126 io_oeb[26]
*127 io_oeb[2]
*128 io_oeb[3]
*129 io_oeb[4]
*130 io_oeb[5]
*131 io_oeb[6]
*132 io_oeb[7]
*133 io_oeb[8]
*134 io_oeb[9]
*135 io_out[0]
*136 io_out[10]
*137 io_out[11]
*138 io_out[12]
*139 io_out[13]
*140 io_out[14]
*141 io_out[15]
*142 io_out[16]
*143 io_out[17]
*144 io_out[18]
*145 io_out[19]
*146 io_out[1]
*147 io_out[20]
*148 io_out[21]
*149 io_out[22]
*150 io_out[23]
*151 io_out[24]
*152 io_out[25]
*153 io_out[26]
*154 io_out[2]
*155 io_out[3]
*156 io_out[4]
*157 io_out[5]
*158 io_out[6]
*159 io_out[7]
*160 io_out[8]
*161 io_out[9]
*162 la_data_in[0]
*163 la_data_in[100]
*164 la_data_in[101]
*165 la_data_in[102]
*166 la_data_in[103]
*167 la_data_in[104]
*168 la_data_in[105]
*169 la_data_in[106]
*170 la_data_in[107]
*171 la_data_in[108]
*172 la_data_in[109]
*173 la_data_in[10]
*174 la_data_in[110]
*175 la_data_in[111]
*176 la_data_in[112]
*177 la_data_in[113]
*178 la_data_in[114]
*179 la_data_in[115]
*180 la_data_in[116]
*181 la_data_in[117]
*182 la_data_in[118]
*183 la_data_in[119]
*184 la_data_in[11]
*185 la_data_in[120]
*186 la_data_in[121]
*187 la_data_in[122]
*188 la_data_in[123]
*189 la_data_in[124]
*190 la_data_in[125]
*191 la_data_in[126]
*192 la_data_in[127]
*193 la_data_in[12]
*194 la_data_in[13]
*195 la_data_in[14]
*196 la_data_in[15]
*197 la_data_in[16]
*198 la_data_in[17]
*199 la_data_in[18]
*200 la_data_in[19]
*201 la_data_in[1]
*202 la_data_in[20]
*203 la_data_in[21]
*204 la_data_in[22]
*205 la_data_in[23]
*206 la_data_in[24]
*207 la_data_in[25]
*208 la_data_in[26]
*209 la_data_in[27]
*210 la_data_in[28]
*211 la_data_in[29]
*212 la_data_in[2]
*213 la_data_in[30]
*214 la_data_in[31]
*215 la_data_in[32]
*216 la_data_in[33]
*217 la_data_in[34]
*218 la_data_in[35]
*219 la_data_in[36]
*220 la_data_in[37]
*221 la_data_in[38]
*222 la_data_in[39]
*223 la_data_in[3]
*224 la_data_in[40]
*225 la_data_in[41]
*226 la_data_in[42]
*227 la_data_in[43]
*228 la_data_in[44]
*229 la_data_in[45]
*230 la_data_in[46]
*231 la_data_in[47]
*232 la_data_in[48]
*233 la_data_in[49]
*234 la_data_in[4]
*235 la_data_in[50]
*236 la_data_in[51]
*237 la_data_in[52]
*238 la_data_in[53]
*239 la_data_in[54]
*240 la_data_in[55]
*241 la_data_in[56]
*242 la_data_in[57]
*243 la_data_in[58]
*244 la_data_in[59]
*245 la_data_in[5]
*246 la_data_in[60]
*247 la_data_in[61]
*248 la_data_in[62]
*249 la_data_in[63]
*250 la_data_in[64]
*251 la_data_in[65]
*252 la_data_in[66]
*253 la_data_in[67]
*254 la_data_in[68]
*255 la_data_in[69]
*256 la_data_in[6]
*257 la_data_in[70]
*258 la_data_in[71]
*259 la_data_in[72]
*260 la_data_in[73]
*261 la_data_in[74]
*262 la_data_in[75]
*263 la_data_in[76]
*264 la_data_in[77]
*265 la_data_in[78]
*266 la_data_in[79]
*267 la_data_in[7]
*268 la_data_in[80]
*269 la_data_in[81]
*270 la_data_in[82]
*271 la_data_in[83]
*272 la_data_in[84]
*273 la_data_in[85]
*274 la_data_in[86]
*275 la_data_in[87]
*276 la_data_in[88]
*277 la_data_in[89]
*278 la_data_in[8]
*279 la_data_in[90]
*280 la_data_in[91]
*281 la_data_in[92]
*282 la_data_in[93]
*283 la_data_in[94]
*284 la_data_in[95]
*285 la_data_in[96]
*286 la_data_in[97]
*287 la_data_in[98]
*288 la_data_in[99]
*289 la_data_in[9]
*290 la_data_out[0]
*291 la_data_out[100]
*292 la_data_out[101]
*293 la_data_out[102]
*294 la_data_out[103]
*295 la_data_out[104]
*296 la_data_out[105]
*297 la_data_out[106]
*298 la_data_out[107]
*299 la_data_out[108]
*300 la_data_out[109]
*301 la_data_out[10]
*302 la_data_out[110]
*303 la_data_out[111]
*304 la_data_out[112]
*305 la_data_out[113]
*306 la_data_out[114]
*307 la_data_out[115]
*308 la_data_out[116]
*309 la_data_out[117]
*310 la_data_out[118]
*311 la_data_out[119]
*312 la_data_out[11]
*313 la_data_out[120]
*314 la_data_out[121]
*315 la_data_out[122]
*316 la_data_out[123]
*317 la_data_out[124]
*318 la_data_out[125]
*319 la_data_out[126]
*320 la_data_out[127]
*321 la_data_out[12]
*322 la_data_out[13]
*323 la_data_out[14]
*324 la_data_out[15]
*325 la_data_out[16]
*326 la_data_out[17]
*327 la_data_out[18]
*328 la_data_out[19]
*329 la_data_out[1]
*330 la_data_out[20]
*331 la_data_out[21]
*332 la_data_out[22]
*333 la_data_out[23]
*334 la_data_out[24]
*335 la_data_out[25]
*336 la_data_out[26]
*337 la_data_out[27]
*338 la_data_out[28]
*339 la_data_out[29]
*340 la_data_out[2]
*341 la_data_out[30]
*342 la_data_out[31]
*343 la_data_out[32]
*344 la_data_out[33]
*345 la_data_out[34]
*346 la_data_out[35]
*347 la_data_out[36]
*348 la_data_out[37]
*349 la_data_out[38]
*350 la_data_out[39]
*351 la_data_out[3]
*352 la_data_out[40]
*353 la_data_out[41]
*354 la_data_out[42]
*355 la_data_out[43]
*356 la_data_out[44]
*357 la_data_out[45]
*358 la_data_out[46]
*359 la_data_out[47]
*360 la_data_out[48]
*361 la_data_out[49]
*362 la_data_out[4]
*363 la_data_out[50]
*364 la_data_out[51]
*365 la_data_out[52]
*366 la_data_out[53]
*367 la_data_out[54]
*368 la_data_out[55]
*369 la_data_out[56]
*370 la_data_out[57]
*371 la_data_out[58]
*372 la_data_out[59]
*373 la_data_out[5]
*374 la_data_out[60]
*375 la_data_out[61]
*376 la_data_out[62]
*377 la_data_out[63]
*378 la_data_out[64]
*379 la_data_out[65]
*380 la_data_out[66]
*381 la_data_out[67]
*382 la_data_out[68]
*383 la_data_out[69]
*384 la_data_out[6]
*385 la_data_out[70]
*386 la_data_out[71]
*387 la_data_out[72]
*388 la_data_out[73]
*389 la_data_out[74]
*390 la_data_out[75]
*391 la_data_out[76]
*392 la_data_out[77]
*393 la_data_out[78]
*394 la_data_out[79]
*395 la_data_out[7]
*396 la_data_out[80]
*397 la_data_out[81]
*398 la_data_out[82]
*399 la_data_out[83]
*400 la_data_out[84]
*401 la_data_out[85]
*402 la_data_out[86]
*403 la_data_out[87]
*404 la_data_out[88]
*405 la_data_out[89]
*406 la_data_out[8]
*407 la_data_out[90]
*408 la_data_out[91]
*409 la_data_out[92]
*410 la_data_out[93]
*411 la_data_out[94]
*412 la_data_out[95]
*413 la_data_out[96]
*414 la_data_out[97]
*415 la_data_out[98]
*416 la_data_out[99]
*417 la_data_out[9]
*418 la_oenb[0]
*419 la_oenb[100]
*420 la_oenb[101]
*421 la_oenb[102]
*422 la_oenb[103]
*423 la_oenb[104]
*424 la_oenb[105]
*425 la_oenb[106]
*426 la_oenb[107]
*427 la_oenb[108]
*428 la_oenb[109]
*429 la_oenb[10]
*430 la_oenb[110]
*431 la_oenb[111]
*432 la_oenb[112]
*433 la_oenb[113]
*434 la_oenb[114]
*435 la_oenb[115]
*436 la_oenb[116]
*437 la_oenb[117]
*438 la_oenb[118]
*439 la_oenb[119]
*440 la_oenb[11]
*441 la_oenb[120]
*442 la_oenb[121]
*443 la_oenb[122]
*444 la_oenb[123]
*445 la_oenb[124]
*446 la_oenb[125]
*447 la_oenb[126]
*448 la_oenb[127]
*449 la_oenb[12]
*450 la_oenb[13]
*451 la_oenb[14]
*452 la_oenb[15]
*453 la_oenb[16]
*454 la_oenb[17]
*455 la_oenb[18]
*456 la_oenb[19]
*457 la_oenb[1]
*458 la_oenb[20]
*459 la_oenb[21]
*460 la_oenb[22]
*461 la_oenb[23]
*462 la_oenb[24]
*463 la_oenb[25]
*464 la_oenb[26]
*465 la_oenb[27]
*466 la_oenb[28]
*467 la_oenb[29]
*468 la_oenb[2]
*469 la_oenb[30]
*470 la_oenb[31]
*471 la_oenb[32]
*472 la_oenb[33]
*473 la_oenb[34]
*474 la_oenb[35]
*475 la_oenb[36]
*476 la_oenb[37]
*477 la_oenb[38]
*478 la_oenb[39]
*479 la_oenb[3]
*480 la_oenb[40]
*481 la_oenb[41]
*482 la_oenb[42]
*483 la_oenb[43]
*484 la_oenb[44]
*485 la_oenb[45]
*486 la_oenb[46]
*487 la_oenb[47]
*488 la_oenb[48]
*489 la_oenb[49]
*490 la_oenb[4]
*491 la_oenb[50]
*492 la_oenb[51]
*493 la_oenb[52]
*494 la_oenb[53]
*495 la_oenb[54]
*496 la_oenb[55]
*497 la_oenb[56]
*498 la_oenb[57]
*499 la_oenb[58]
*500 la_oenb[59]
*501 la_oenb[5]
*502 la_oenb[60]
*503 la_oenb[61]
*504 la_oenb[62]
*505 la_oenb[63]
*506 la_oenb[64]
*507 la_oenb[65]
*508 la_oenb[66]
*509 la_oenb[67]
*510 la_oenb[68]
*511 la_oenb[69]
*512 la_oenb[6]
*513 la_oenb[70]
*514 la_oenb[71]
*515 la_oenb[72]
*516 la_oenb[73]
*517 la_oenb[74]
*518 la_oenb[75]
*519 la_oenb[76]
*520 la_oenb[77]
*521 la_oenb[78]
*522 la_oenb[79]
*523 la_oenb[7]
*524 la_oenb[80]
*525 la_oenb[81]
*526 la_oenb[82]
*527 la_oenb[83]
*528 la_oenb[84]
*529 la_oenb[85]
*530 la_oenb[86]
*531 la_oenb[87]
*532 la_oenb[88]
*533 la_oenb[89]
*534 la_oenb[8]
*535 la_oenb[90]
*536 la_oenb[91]
*537 la_oenb[92]
*538 la_oenb[93]
*539 la_oenb[94]
*540 la_oenb[95]
*541 la_oenb[96]
*542 la_oenb[97]
*543 la_oenb[98]
*544 la_oenb[99]
*545 la_oenb[9]
*546 user_clock2
*547 user_irq[0]
*548 user_irq[1]
*549 user_irq[2]
*558 wb_clk_i
*559 wb_rst_i
*560 wbs_ack_o
*561 wbs_adr_i[0]
*562 wbs_adr_i[10]
*563 wbs_adr_i[11]
*564 wbs_adr_i[12]
*565 wbs_adr_i[13]
*566 wbs_adr_i[14]
*567 wbs_adr_i[15]
*568 wbs_adr_i[16]
*569 wbs_adr_i[17]
*570 wbs_adr_i[18]
*571 wbs_adr_i[19]
*572 wbs_adr_i[1]
*573 wbs_adr_i[20]
*574 wbs_adr_i[21]
*575 wbs_adr_i[22]
*576 wbs_adr_i[23]
*577 wbs_adr_i[24]
*578 wbs_adr_i[25]
*579 wbs_adr_i[26]
*580 wbs_adr_i[27]
*581 wbs_adr_i[28]
*582 wbs_adr_i[29]
*583 wbs_adr_i[2]
*584 wbs_adr_i[30]
*585 wbs_adr_i[31]
*586 wbs_adr_i[3]
*587 wbs_adr_i[4]
*588 wbs_adr_i[5]
*589 wbs_adr_i[6]
*590 wbs_adr_i[7]
*591 wbs_adr_i[8]
*592 wbs_adr_i[9]
*593 wbs_cyc_i
*594 wbs_dat_i[0]
*595 wbs_dat_i[10]
*596 wbs_dat_i[11]
*597 wbs_dat_i[12]
*598 wbs_dat_i[13]
*599 wbs_dat_i[14]
*600 wbs_dat_i[15]
*601 wbs_dat_i[16]
*602 wbs_dat_i[17]
*603 wbs_dat_i[18]
*604 wbs_dat_i[19]
*605 wbs_dat_i[1]
*606 wbs_dat_i[20]
*607 wbs_dat_i[21]
*608 wbs_dat_i[22]
*609 wbs_dat_i[23]
*610 wbs_dat_i[24]
*611 wbs_dat_i[25]
*612 wbs_dat_i[26]
*613 wbs_dat_i[27]
*614 wbs_dat_i[28]
*615 wbs_dat_i[29]
*616 wbs_dat_i[2]
*617 wbs_dat_i[30]
*618 wbs_dat_i[31]
*619 wbs_dat_i[3]
*620 wbs_dat_i[4]
*621 wbs_dat_i[5]
*622 wbs_dat_i[6]
*623 wbs_dat_i[7]
*624 wbs_dat_i[8]
*625 wbs_dat_i[9]
*626 wbs_dat_o[0]
*627 wbs_dat_o[10]
*628 wbs_dat_o[11]
*629 wbs_dat_o[12]
*630 wbs_dat_o[13]
*631 wbs_dat_o[14]
*632 wbs_dat_o[15]
*633 wbs_dat_o[16]
*634 wbs_dat_o[17]
*635 wbs_dat_o[18]
*636 wbs_dat_o[19]
*637 wbs_dat_o[1]
*638 wbs_dat_o[20]
*639 wbs_dat_o[21]
*640 wbs_dat_o[22]
*641 wbs_dat_o[23]
*642 wbs_dat_o[24]
*643 wbs_dat_o[25]
*644 wbs_dat_o[26]
*645 wbs_dat_o[27]
*646 wbs_dat_o[28]
*647 wbs_dat_o[29]
*648 wbs_dat_o[2]
*649 wbs_dat_o[30]
*650 wbs_dat_o[31]
*651 wbs_dat_o[3]
*652 wbs_dat_o[4]
*653 wbs_dat_o[5]
*654 wbs_dat_o[6]
*655 wbs_dat_o[7]
*656 wbs_dat_o[8]
*657 wbs_dat_o[9]
*658 wbs_sel_i[0]
*659 wbs_sel_i[1]
*660 wbs_sel_i[2]
*661 wbs_sel_i[3]
*662 wbs_stb_i
*663 wbs_we_i
*664 wb_buttons_leds

*PORTS
gpio_analog[0] I
gpio_analog[10] I
gpio_analog[11] I
gpio_analog[12] I
gpio_analog[13] I
gpio_analog[14] I
gpio_analog[15] I
gpio_analog[16] I
gpio_analog[17] I
gpio_analog[1] I
gpio_analog[2] I
gpio_analog[3] I
gpio_analog[4] I
gpio_analog[5] I
gpio_analog[6] I
gpio_analog[7] I
gpio_analog[8] I
gpio_analog[9] I
gpio_noesd[0] I
gpio_noesd[10] I
gpio_noesd[11] I
gpio_noesd[12] I
gpio_noesd[13] I
gpio_noesd[14] I
gpio_noesd[15] I
gpio_noesd[16] I
gpio_noesd[17] I
gpio_noesd[1] I
gpio_noesd[2] I
gpio_noesd[3] I
gpio_noesd[4] I
gpio_noesd[5] I
gpio_noesd[6] I
gpio_noesd[7] I
gpio_noesd[8] I
gpio_noesd[9] I
io_analog[0] I
io_analog[10] I
io_analog[1] I
io_analog[2] I
io_analog[3] I
io_analog[4] I
io_analog[5] I
io_analog[6] I
io_analog[7] I
io_analog[8] I
io_analog[9] I
io_clamp_high[0] I
io_clamp_high[1] I
io_clamp_high[2] I
io_clamp_low[0] I
io_clamp_low[1] I
io_clamp_low[2] I
io_in[0] I
io_in[10] I
io_in[11] I
io_in[12] I
io_in[13] I
io_in[14] I
io_in[15] I
io_in[16] I
io_in[17] I
io_in[18] I
io_in[19] I
io_in[1] I
io_in[20] I
io_in[21] I
io_in[22] I
io_in[23] I
io_in[24] I
io_in[25] I
io_in[26] I
io_in[2] I
io_in[3] I
io_in[4] I
io_in[5] I
io_in[6] I
io_in[7] I
io_in[8] I
io_in[9] I
io_in_3v3[0] I
io_in_3v3[10] I
io_in_3v3[11] I
io_in_3v3[12] I
io_in_3v3[13] I
io_in_3v3[14] I
io_in_3v3[15] I
io_in_3v3[16] I
io_in_3v3[17] I
io_in_3v3[18] I
io_in_3v3[19] I
io_in_3v3[1] I
io_in_3v3[20] I
io_in_3v3[21] I
io_in_3v3[22] I
io_in_3v3[23] I
io_in_3v3[24] I
io_in_3v3[25] I
io_in_3v3[26] I
io_in_3v3[2] I
io_in_3v3[3] I
io_in_3v3[4] I
io_in_3v3[5] I
io_in_3v3[6] I
io_in_3v3[7] I
io_in_3v3[8] I
io_in_3v3[9] I
io_oeb[0] O
io_oeb[10] O
io_oeb[11] O
io_oeb[12] O
io_oeb[13] O
io_oeb[14] O
io_oeb[15] O
io_oeb[16] O
io_oeb[17] O
io_oeb[18] O
io_oeb[19] O
io_oeb[1] O
io_oeb[20] O
io_oeb[21] O
io_oeb[22] O
io_oeb[23] O
io_oeb[24] O
io_oeb[25] O
io_oeb[26] O
io_oeb[2] O
io_oeb[3] O
io_oeb[4] O
io_oeb[5] O
io_oeb[6] O
io_oeb[7] O
io_oeb[8] O
io_oeb[9] O
io_out[0] O
io_out[10] O
io_out[11] O
io_out[12] O
io_out[13] O
io_out[14] O
io_out[15] O
io_out[16] O
io_out[17] O
io_out[18] O
io_out[19] O
io_out[1] O
io_out[20] O
io_out[21] O
io_out[22] O
io_out[23] O
io_out[24] O
io_out[25] O
io_out[26] O
io_out[2] O
io_out[3] O
io_out[4] O
io_out[5] O
io_out[6] O
io_out[7] O
io_out[8] O
io_out[9] O
la_data_in[0] I
la_data_in[100] I
la_data_in[101] I
la_data_in[102] I
la_data_in[103] I
la_data_in[104] I
la_data_in[105] I
la_data_in[106] I
la_data_in[107] I
la_data_in[108] I
la_data_in[109] I
la_data_in[10] I
la_data_in[110] I
la_data_in[111] I
la_data_in[112] I
la_data_in[113] I
la_data_in[114] I
la_data_in[115] I
la_data_in[116] I
la_data_in[117] I
la_data_in[118] I
la_data_in[119] I
la_data_in[11] I
la_data_in[120] I
la_data_in[121] I
la_data_in[122] I
la_data_in[123] I
la_data_in[124] I
la_data_in[125] I
la_data_in[126] I
la_data_in[127] I
la_data_in[12] I
la_data_in[13] I
la_data_in[14] I
la_data_in[15] I
la_data_in[16] I
la_data_in[17] I
la_data_in[18] I
la_data_in[19] I
la_data_in[1] I
la_data_in[20] I
la_data_in[21] I
la_data_in[22] I
la_data_in[23] I
la_data_in[24] I
la_data_in[25] I
la_data_in[26] I
la_data_in[27] I
la_data_in[28] I
la_data_in[29] I
la_data_in[2] I
la_data_in[30] I
la_data_in[31] I
la_data_in[32] I
la_data_in[33] I
la_data_in[34] I
la_data_in[35] I
la_data_in[36] I
la_data_in[37] I
la_data_in[38] I
la_data_in[39] I
la_data_in[3] I
la_data_in[40] I
la_data_in[41] I
la_data_in[42] I
la_data_in[43] I
la_data_in[44] I
la_data_in[45] I
la_data_in[46] I
la_data_in[47] I
la_data_in[48] I
la_data_in[49] I
la_data_in[4] I
la_data_in[50] I
la_data_in[51] I
la_data_in[52] I
la_data_in[53] I
la_data_in[54] I
la_data_in[55] I
la_data_in[56] I
la_data_in[57] I
la_data_in[58] I
la_data_in[59] I
la_data_in[5] I
la_data_in[60] I
la_data_in[61] I
la_data_in[62] I
la_data_in[63] I
la_data_in[64] I
la_data_in[65] I
la_data_in[66] I
la_data_in[67] I
la_data_in[68] I
la_data_in[69] I
la_data_in[6] I
la_data_in[70] I
la_data_in[71] I
la_data_in[72] I
la_data_in[73] I
la_data_in[74] I
la_data_in[75] I
la_data_in[76] I
la_data_in[77] I
la_data_in[78] I
la_data_in[79] I
la_data_in[7] I
la_data_in[80] I
la_data_in[81] I
la_data_in[82] I
la_data_in[83] I
la_data_in[84] I
la_data_in[85] I
la_data_in[86] I
la_data_in[87] I
la_data_in[88] I
la_data_in[89] I
la_data_in[8] I
la_data_in[90] I
la_data_in[91] I
la_data_in[92] I
la_data_in[93] I
la_data_in[94] I
la_data_in[95] I
la_data_in[96] I
la_data_in[97] I
la_data_in[98] I
la_data_in[99] I
la_data_in[9] I
la_data_out[0] O
la_data_out[100] O
la_data_out[101] O
la_data_out[102] O
la_data_out[103] O
la_data_out[104] O
la_data_out[105] O
la_data_out[106] O
la_data_out[107] O
la_data_out[108] O
la_data_out[109] O
la_data_out[10] O
la_data_out[110] O
la_data_out[111] O
la_data_out[112] O
la_data_out[113] O
la_data_out[114] O
la_data_out[115] O
la_data_out[116] O
la_data_out[117] O
la_data_out[118] O
la_data_out[119] O
la_data_out[11] O
la_data_out[120] O
la_data_out[121] O
la_data_out[122] O
la_data_out[123] O
la_data_out[124] O
la_data_out[125] O
la_data_out[126] O
la_data_out[127] O
la_data_out[12] O
la_data_out[13] O
la_data_out[14] O
la_data_out[15] O
la_data_out[16] O
la_data_out[17] O
la_data_out[18] O
la_data_out[19] O
la_data_out[1] O
la_data_out[20] O
la_data_out[21] O
la_data_out[22] O
la_data_out[23] O
la_data_out[24] O
la_data_out[25] O
la_data_out[26] O
la_data_out[27] O
la_data_out[28] O
la_data_out[29] O
la_data_out[2] O
la_data_out[30] O
la_data_out[31] O
la_data_out[32] O
la_data_out[33] O
la_data_out[34] O
la_data_out[35] O
la_data_out[36] O
la_data_out[37] O
la_data_out[38] O
la_data_out[39] O
la_data_out[3] O
la_data_out[40] O
la_data_out[41] O
la_data_out[42] O
la_data_out[43] O
la_data_out[44] O
la_data_out[45] O
la_data_out[46] O
la_data_out[47] O
la_data_out[48] O
la_data_out[49] O
la_data_out[4] O
la_data_out[50] O
la_data_out[51] O
la_data_out[52] O
la_data_out[53] O
la_data_out[54] O
la_data_out[55] O
la_data_out[56] O
la_data_out[57] O
la_data_out[58] O
la_data_out[59] O
la_data_out[5] O
la_data_out[60] O
la_data_out[61] O
la_data_out[62] O
la_data_out[63] O
la_data_out[64] O
la_data_out[65] O
la_data_out[66] O
la_data_out[67] O
la_data_out[68] O
la_data_out[69] O
la_data_out[6] O
la_data_out[70] O
la_data_out[71] O
la_data_out[72] O
la_data_out[73] O
la_data_out[74] O
la_data_out[75] O
la_data_out[76] O
la_data_out[77] O
la_data_out[78] O
la_data_out[79] O
la_data_out[7] O
la_data_out[80] O
la_data_out[81] O
la_data_out[82] O
la_data_out[83] O
la_data_out[84] O
la_data_out[85] O
la_data_out[86] O
la_data_out[87] O
la_data_out[88] O
la_data_out[89] O
la_data_out[8] O
la_data_out[90] O
la_data_out[91] O
la_data_out[92] O
la_data_out[93] O
la_data_out[94] O
la_data_out[95] O
la_data_out[96] O
la_data_out[97] O
la_data_out[98] O
la_data_out[99] O
la_data_out[9] O
la_oenb[0] I
la_oenb[100] I
la_oenb[101] I
la_oenb[102] I
la_oenb[103] I
la_oenb[104] I
la_oenb[105] I
la_oenb[106] I
la_oenb[107] I
la_oenb[108] I
la_oenb[109] I
la_oenb[10] I
la_oenb[110] I
la_oenb[111] I
la_oenb[112] I
la_oenb[113] I
la_oenb[114] I
la_oenb[115] I
la_oenb[116] I
la_oenb[117] I
la_oenb[118] I
la_oenb[119] I
la_oenb[11] I
la_oenb[120] I
la_oenb[121] I
la_oenb[122] I
la_oenb[123] I
la_oenb[124] I
la_oenb[125] I
la_oenb[126] I
la_oenb[127] I
la_oenb[12] I
la_oenb[13] I
la_oenb[14] I
la_oenb[15] I
la_oenb[16] I
la_oenb[17] I
la_oenb[18] I
la_oenb[19] I
la_oenb[1] I
la_oenb[20] I
la_oenb[21] I
la_oenb[22] I
la_oenb[23] I
la_oenb[24] I
la_oenb[25] I
la_oenb[26] I
la_oenb[27] I
la_oenb[28] I
la_oenb[29] I
la_oenb[2] I
la_oenb[30] I
la_oenb[31] I
la_oenb[32] I
la_oenb[33] I
la_oenb[34] I
la_oenb[35] I
la_oenb[36] I
la_oenb[37] I
la_oenb[38] I
la_oenb[39] I
la_oenb[3] I
la_oenb[40] I
la_oenb[41] I
la_oenb[42] I
la_oenb[43] I
la_oenb[44] I
la_oenb[45] I
la_oenb[46] I
la_oenb[47] I
la_oenb[48] I
la_oenb[49] I
la_oenb[4] I
la_oenb[50] I
la_oenb[51] I
la_oenb[52] I
la_oenb[53] I
la_oenb[54] I
la_oenb[55] I
la_oenb[56] I
la_oenb[57] I
la_oenb[58] I
la_oenb[59] I
la_oenb[5] I
la_oenb[60] I
la_oenb[61] I
la_oenb[62] I
la_oenb[63] I
la_oenb[64] I
la_oenb[65] I
la_oenb[66] I
la_oenb[67] I
la_oenb[68] I
la_oenb[69] I
la_oenb[6] I
la_oenb[70] I
la_oenb[71] I
la_oenb[72] I
la_oenb[73] I
la_oenb[74] I
la_oenb[75] I
la_oenb[76] I
la_oenb[77] I
la_oenb[78] I
la_oenb[79] I
la_oenb[7] I
la_oenb[80] I
la_oenb[81] I
la_oenb[82] I
la_oenb[83] I
la_oenb[84] I
la_oenb[85] I
la_oenb[86] I
la_oenb[87] I
la_oenb[88] I
la_oenb[89] I
la_oenb[8] I
la_oenb[90] I
la_oenb[91] I
la_oenb[92] I
la_oenb[93] I
la_oenb[94] I
la_oenb[95] I
la_oenb[96] I
la_oenb[97] I
la_oenb[98] I
la_oenb[99] I
la_oenb[9] I
user_clock2 I
user_irq[0] O
user_irq[1] O
user_irq[2] O
wb_clk_i I
wb_rst_i I
wbs_ack_o O
wbs_adr_i[0] I
wbs_adr_i[10] I
wbs_adr_i[11] I
wbs_adr_i[12] I
wbs_adr_i[13] I
wbs_adr_i[14] I
wbs_adr_i[15] I
wbs_adr_i[16] I
wbs_adr_i[17] I
wbs_adr_i[18] I
wbs_adr_i[19] I
wbs_adr_i[1] I
wbs_adr_i[20] I
wbs_adr_i[21] I
wbs_adr_i[22] I
wbs_adr_i[23] I
wbs_adr_i[24] I
wbs_adr_i[25] I
wbs_adr_i[26] I
wbs_adr_i[27] I
wbs_adr_i[28] I
wbs_adr_i[29] I
wbs_adr_i[2] I
wbs_adr_i[30] I
wbs_adr_i[31] I
wbs_adr_i[3] I
wbs_adr_i[4] I
wbs_adr_i[5] I
wbs_adr_i[6] I
wbs_adr_i[7] I
wbs_adr_i[8] I
wbs_adr_i[9] I
wbs_cyc_i I
wbs_dat_i[0] I
wbs_dat_i[10] I
wbs_dat_i[11] I
wbs_dat_i[12] I
wbs_dat_i[13] I
wbs_dat_i[14] I
wbs_dat_i[15] I
wbs_dat_i[16] I
wbs_dat_i[17] I
wbs_dat_i[18] I
wbs_dat_i[19] I
wbs_dat_i[1] I
wbs_dat_i[20] I
wbs_dat_i[21] I
wbs_dat_i[22] I
wbs_dat_i[23] I
wbs_dat_i[24] I
wbs_dat_i[25] I
wbs_dat_i[26] I
wbs_dat_i[27] I
wbs_dat_i[28] I
wbs_dat_i[29] I
wbs_dat_i[2] I
wbs_dat_i[30] I
wbs_dat_i[31] I
wbs_dat_i[3] I
wbs_dat_i[4] I
wbs_dat_i[5] I
wbs_dat_i[6] I
wbs_dat_i[7] I
wbs_dat_i[8] I
wbs_dat_i[9] I
wbs_dat_o[0] O
wbs_dat_o[10] O
wbs_dat_o[11] O
wbs_dat_o[12] O
wbs_dat_o[13] O
wbs_dat_o[14] O
wbs_dat_o[15] O
wbs_dat_o[16] O
wbs_dat_o[17] O
wbs_dat_o[18] O
wbs_dat_o[19] O
wbs_dat_o[1] O
wbs_dat_o[20] O
wbs_dat_o[21] O
wbs_dat_o[22] O
wbs_dat_o[23] O
wbs_dat_o[24] O
wbs_dat_o[25] O
wbs_dat_o[26] O
wbs_dat_o[27] O
wbs_dat_o[28] O
wbs_dat_o[29] O
wbs_dat_o[2] O
wbs_dat_o[30] O
wbs_dat_o[31] O
wbs_dat_o[3] O
wbs_dat_o[4] O
wbs_dat_o[5] O
wbs_dat_o[6] O
wbs_dat_o[7] O
wbs_dat_o[8] O
wbs_dat_o[9] O
wbs_sel_i[0] I
wbs_sel_i[1] I
wbs_sel_i[2] I
wbs_sel_i[3] I
wbs_stb_i I
wbs_we_i I

*D_NET *54 0.00889174
*CONN
*P io_in[0] I
*I *664:buttons[0] I *D wb_buttons_leds
*CAP
1 io_in[0] 0.0042125
2 *664:buttons[0] 0.0042125
3 *664:buttons[0] *664:buttons[1] 0.000466751
*RES
1 io_in[0] *664:buttons[0] 19.5022 
*END

*D_NET *65 0.00995717
*CONN
*P io_in[1] I
*I *664:buttons[1] I *D wb_buttons_leds
*CAP
1 io_in[1] 0.00458301
2 *664:buttons[1] 0.00458301
3 *664:buttons[1] *664:buttons[2] 0.000324401
4 *664:buttons[0] *664:buttons[1] 0.000466751
*RES
1 io_in[1] *664:buttons[1] 21.7644 
*END

*D_NET *73 0.0115726
*CONN
*P io_in[2] I
*I *664:buttons[2] I *D wb_buttons_leds
*CAP
1 io_in[2] 0.00521822
2 *664:buttons[2] 0.00521822
3 *664:buttons[2] io_out[3] 0.000811779
4 *664:buttons[1] *664:buttons[2] 0.000324401
*RES
1 io_in[2] *664:buttons[2] 24.0267 
*END

*D_NET *109 0.512715
*CONN
*P io_oeb[10] O
*I *664:led_enb[7] O *D wb_buttons_leds
*CAP
1 io_oeb[10] 0.000166525
2 *664:led_enb[7] 0
3 *109:10 0.15219
4 *109:8 0.152023
5 *109:6 0.0927571
6 *109:4 0.0927571
7 *109:6 *133:11 0
8 *109:6 *134:6 0.0228214
9 *109:10 *136:29 0
*RES
1 *664:led_enb[7] *109:4 3.41 
2 *109:4 *109:6 313.255 
3 *109:6 *109:8 3.41 
4 *109:8 *109:10 447.293 
5 *109:10 io_oeb[10] 0.557733 
*END

*D_NET *128 0.0147892
*CONN
*P io_oeb[3] O
*I *664:led_enb[0] O *D wb_buttons_leds
*CAP
1 io_oeb[3] 0.00739459
2 *664:led_enb[0] 0.00739459
3 io_oeb[3] io_out[3] 0
*RES
1 *664:led_enb[0] io_oeb[3] 30.403 
*END

*D_NET *129 0.0252791
*CONN
*P io_oeb[4] O
*I *664:led_enb[1] O *D wb_buttons_leds
*CAP
1 io_oeb[4] 0.00801044
2 *664:led_enb[1] 0.00801044
3 io_oeb[4] io_out[4] 0.00797698
4 io_oeb[4] io_out[5] 0.00128124
*RES
1 *664:led_enb[1] io_oeb[4] 38.6312 
*END

*D_NET *130 0.0146547
*CONN
*P io_oeb[5] O
*I *664:led_enb[2] O *D wb_buttons_leds
*CAP
1 io_oeb[5] 0.00732736
2 *664:led_enb[2] 0.00732736
3 io_oeb[5] io_out[5] 0
*RES
1 *664:led_enb[2] io_oeb[5] 29.8375 
*END

*D_NET *131 0.012893
*CONN
*P io_oeb[6] O
*I *664:led_enb[3] O *D wb_buttons_leds
*CAP
1 io_oeb[6] 0.00644649
2 *664:led_enb[3] 0.00644649
3 io_oeb[6] io_out[6] 0
4 io_oeb[6] *159:9 0
*RES
1 *664:led_enb[3] io_oeb[6] 25.3897 
*END

*D_NET *132 0.0928483
*CONN
*P io_oeb[7] O
*I *664:led_enb[4] O *D wb_buttons_leds
*CAP
1 io_oeb[7] 0.00239056
2 *664:led_enb[4] 0.00066771
3 *132:9 0.0457564
4 *132:7 0.0440336
5 io_oeb[7] io_out[7] 0
6 *132:9 *159:9 0
*RES
1 *664:led_enb[4] *132:7 5.5955 
2 *132:7 *132:9 138.434 
3 *132:9 io_oeb[7] 10.3519 
*END

*D_NET *133 0.421603
*CONN
*P io_oeb[8] O
*I *664:led_enb[5] O *D wb_buttons_leds
*CAP
1 io_oeb[8] 0.000924638
2 *664:led_enb[5] 0.00606188
3 *133:25 0.048062
4 *133:23 0.0471374
5 *133:21 0.119024
6 *133:19 0.119359
7 *133:15 0.0152417
8 *133:11 0.0209686
9 io_oeb[8] io_out[8] 0
10 io_oeb[8] *160:21 0
11 *133:15 *136:23 0.00175812
12 *133:15 *590:17 0
13 *133:15 *600:19 0.000382409
14 *133:15 *655:19 0.00198936
15 *133:21 *567:19 0.0063018
16 *133:25 *134:14 0.0343918
17 *109:6 *133:11 0
*RES
1 *664:led_enb[5] *133:11 25.7594 
2 *133:11 *133:15 49.4716 
3 *133:15 *133:19 10.2411 
4 *133:19 *133:21 2279.59 
5 *133:21 *133:23 4.5 
6 *133:23 *133:25 970.795 
7 *133:25 io_oeb[8] 6.15323 
*END

*D_NET *134 0.499415
*CONN
*P io_oeb[9] O
*I *664:led_enb[6] O *D wb_buttons_leds
*CAP
1 io_oeb[9] 0.000942187
2 *664:led_enb[6] 0
3 *134:14 0.0646442
4 *134:12 0.063702
5 *134:10 0.1464
6 *134:8 0.1464
7 *134:6 0.00989146
8 *134:4 0.00989146
9 io_oeb[9] *161:21 0
10 *134:10 *161:13 0.000330199
11 *109:6 *134:6 0.0228214
12 *133:25 *134:14 0.0343918
*RES
1 *664:led_enb[6] *134:4 3.41 
2 *134:4 *134:6 47.6674 
3 *134:6 *134:8 3.41 
4 *134:8 *134:10 444.987 
5 *134:10 *134:12 3.41 
6 *134:12 *134:14 203.206 
7 *134:14 io_oeb[9] 6.13757 
*END

*D_NET *136 0.495896
*CONN
*P io_out[10] O
*I *664:leds[7] O *D wb_buttons_leds
*CAP
1 io_out[10] 0.00016248
2 *664:leds[7] 0.000953577
3 *136:29 0.156319
4 *136:27 0.156156
5 *136:25 0.0669973
6 *136:23 0.0697916
7 *136:9 0.0164041
8 *136:7 0.0145634
9 *136:9 *161:13 0.0127556
10 *136:23 *160:15 3.54108e-05
11 *109:10 *136:29 0
12 *133:15 *136:23 0.00175812
*RES
1 *664:leds[7] *136:7 6.17203 
2 *136:7 *136:9 52.5679 
3 *136:9 *136:23 44.6144 
4 *136:23 *136:25 1380.16 
5 *136:25 *136:27 3.41 
6 *136:27 *136:29 445.383 
7 *136:29 io_out[10] 0.524833 
*END

*D_NET *155 0.0141189
*CONN
*P io_out[3] O
*I *664:leds[0] O *D wb_buttons_leds
*CAP
1 io_out[3] 0.00532056
2 *664:leds[0] 0.00532056
3 io_out[3] io_out[4] 0.00266599
4 io_oeb[3] io_out[3] 0
5 *664:buttons[2] io_out[3] 0.000811779
*RES
1 *664:leds[0] io_out[3] 25.3631 
*END

*D_NET *156 0.0227308
*CONN
*P io_out[4] O
*I *664:leds[1] O *D wb_buttons_leds
*CAP
1 io_out[4] 0.00604393
2 *664:leds[1] 0.00604393
3 io_oeb[4] io_out[4] 0.00797698
4 io_out[3] io_out[4] 0.00266599
*RES
1 *664:leds[1] io_out[4] 33.5912 
*END

*D_NET *157 0.0121808
*CONN
*P io_out[5] O
*I *664:leds[2] O *D wb_buttons_leds
*CAP
1 io_out[5] 0.00544976
2 *664:leds[2] 0.00544976
3 io_oeb[4] io_out[5] 0.00128124
4 io_oeb[5] io_out[5] 0
*RES
1 *664:leds[2] io_out[5] 24.7975 
*END

*D_NET *158 0.0165457
*CONN
*P io_out[6] O
*I *664:leds[3] O *D wb_buttons_leds
*CAP
1 io_out[6] 0.00827285
2 *664:leds[3] 0.00827285
3 io_oeb[6] io_out[6] 0
*RES
1 *664:leds[3] io_out[6] 30.4297 
*END

*D_NET *159 0.0962706
*CONN
*P io_out[7] O
*I *664:leds[4] O *D wb_buttons_leds
*CAP
1 io_out[7] 0.00218236
2 *664:leds[4] 0.000968188
3 *159:9 0.0471671
4 *159:7 0.0459529
5 io_oeb[6] *159:9 0
6 io_oeb[7] io_out[7] 0
7 *132:9 *159:9 0
*RES
1 *664:leds[4] *159:7 6.60443 
2 *159:7 *159:9 143.547 
3 *159:9 io_out[7] 9.5106 
*END

*D_NET *160 0.411101
*CONN
*P io_out[8] O
*I *664:leds[5] O *D wb_buttons_leds
*CAP
1 io_out[8] 0.00014464
2 *664:leds[5] 0.00795347
3 *160:21 0.143819
4 *160:19 0.143674
5 *160:17 0.052927
6 *160:15 0.0608805
7 *160:15 *161:13 0.00166718
8 io_oeb[8] io_out[8] 0
9 io_oeb[8] *160:21 0
10 *136:23 *160:15 3.54108e-05
*RES
1 *664:leds[5] *160:15 31.98 
2 *160:15 *160:17 169.009 
3 *160:17 *160:19 3.41 
4 *160:19 *160:21 436.771 
5 *160:21 io_out[8] 0.509167 
*END

*D_NET *161 0.474441
*CONN
*P io_out[9] O
*I *664:leds[6] O *D wb_buttons_leds
*CAP
1 io_out[9] 0.000175125
2 *664:leds[6] 0.0103876
3 *161:21 0.156044
4 *161:19 0.155869
5 *161:17 0.0634126
6 *161:15 0.0634126
7 *161:13 0.0103876
8 io_oeb[9] *161:21 0
9 *134:10 *161:13 0.000330199
10 *136:9 *161:13 0.0127556
11 *160:15 *161:13 0.00166718
*RES
1 *664:leds[6] *161:13 49.0996 
2 *161:13 *161:15 3.41 
3 *161:15 *161:17 202.886 
4 *161:17 *161:19 3.41 
5 *161:19 *161:21 444.41 
6 *161:21 io_out[9] 0.560867 
*END

*D_NET *558 0.0138084
*CONN
*P wb_clk_i I
*I *664:wb_clk_i I *D wb_buttons_leds
*CAP
1 wb_clk_i 0.00339658
2 *664:wb_clk_i 0.00339658
3 *664:wb_clk_i wbs_ack_o 0.00344587
4 *664:wb_clk_i *664:wb_rst_i 0
5 *664:wb_clk_i *593:15 0.00356942
*RES
1 wb_clk_i *664:wb_clk_i 32.5849 
*END

*D_NET *559 0.0180119
*CONN
*P wb_rst_i I
*I *664:wb_rst_i I *D wb_buttons_leds
*CAP
1 wb_rst_i 0.00401672
2 *664:wb_rst_i 0.00401672
3 *664:wb_rst_i wbs_ack_o 0
4 *664:wb_rst_i *664:wbs_stb_i 0
5 *664:wb_rst_i *561:11 0.000173071
6 *664:wb_rst_i *594:9 0.00707034
7 *664:wb_rst_i *605:11 0.00175384
8 *664:wb_rst_i *619:11 0.000341811
9 *664:wb_rst_i *663:13 0.000639356